/*--------------------------------*- C++ -*----------------------------------*\
| =========                 |                                                 |
| \\      /  F ield         | OpenFOAM: The Open Source CFD Toolbox           |
|  \\    /   O peration     | Version:  2112                                  |
|   \\  /    A nd           | Website:  www.openfoam.com                      |
|    \\/     M anipulation  |                                                 |
\*---------------------------------------------------------------------------*/
FoamFile
{
    version     2.0;
    format      ascii;
    arch        "LSB;label=32;scalar=64";
    class       polyBoundaryMesh;
    location    "constant/polyMesh";
    object      boundary;
}
// * * * * * * * * * * * * * * * * * * * * * * * * * * * * * * * * * * * * * //

4
(
    inlet
    {
        type            patch;
        nFaces          990;
        startFace       797909;
    }
    outlet
    {
        type            patch;
        nFaces          980;
        startFace       798899;
    }
    walls
    {
        type            wall;
        inGroups        1(wall);
        nFaces          7128;
        startFace       799879;
    }
    intrf_d
    {   //type            mappedMixed;
        //sampleMode      nearestPatchFace;
        //sampleWorld     solid;
        //samplePatch     coupled;
        //sampleDatabase  true;
        type            wall;
        inGroups        1(wall);;
        nFaces          86316;
        startFace       807007;
    }
)

// ************************************************************************* //
