/*--------------------------------*- C++ -*----------------------------------*\
| =========                 |                                                 |
| \\      /  F ield         | OpenFOAM: The Open Source CFD Toolbox           |
|  \\    /   O peration     | Version:  2112                                  |
|   \\  /    A nd           | Website:  www.openfoam.com                      |
|    \\/     M anipulation  |                                                 |
\*---------------------------------------------------------------------------*/
FoamFile
{
    version     2.0;
    format      ascii;
    arch        "LSB;label=32;scalar=64";
    class       polyBoundaryMesh;
    location    "constant/polyMesh";
    object      boundary;
}
// * * * * * * * * * * * * * * * * * * * * * * * * * * * * * * * * * * * * * //

4
(
    intrf_map
    {   //type            mappedMixed;
        //sampleMode      nearestPatchFace;
        //sampleWorld     solid;
        //samplePatch     coupled;
        //sampleDatabase  true;
        type            wall;
        inGroups        1(wall);
        nFaces          86316;
        startFace       463968;
    }
    inlet
    {
        type            patch;
        nFaces          568;
        startFace       550284;
    }
    outlet
    {
        type            patch;
        nFaces          568;
        startFace       550852;
    }
    in_walls
    {
        type            wall;
        inGroups        1(wall);
        nFaces          4640;
        startFace       551420;
    }
)

// ************************************************************************* //
